!!!!    6    0    1 1652325505  V9557                                         
vector cycle 10u
receive delay 8u

default device "u25"
set terminators to on
assign VCC to pins *
assign GND to pins *

assign G1B to pins 1
assign A1  to pins 2
assign A2  to pins 4
assign A3  to pins * !6  !tck short probe
assign A4  to pins 8
assign X1  to pins 18
assign X2  to pins 16
assign X3  to pins * !14 !tck short probe
assign X4  to pins 12

assign G2B to pins 19
assign B1  to pins 11
assign B2  to pins 13
assign B3  to pins 15
assign B4  to pins 17
assign Y1  to pins *
assign Y2  to pins *
assign Y3  to pins *
assign Y4  to pins *

power  VCC,GND
inputs G1B,G2B
inputs  A1,A2,A3,A4,B1,B2,B3,B4
outputs X1,X2,X3,X4,Y1,Y2,Y3,Y4

family LVT_1V8

pcf order default SCAN is  G1B,A1,A2,A3,A4,X1,X2,X3,X4


unit
pcf
  "0 1010 HLHL"
  "0 0101 LHLH"
  "1 0000 HHHH"
end pcf
end unit

