!!!!    6    0    1 1652343227  V3965                                         
vector cycle 10u
receive delay 8u

default device "u8"
set terminators to on
assign VCC to pins *
assign GND to pins *

assign EB  to pins 15
assign SEL to pins 1

assign A0  to pins 2
assign A1  to pins 3
assign YA  to pins 4

assign B0  to pins 5
assign B1  to pins 6
assign YB  to pins 7

assign C0  to pins 11
assign C1  to pins 10
assign YC  to pins 9

assign D0  to pins 14
assign D1  to pins 13
assign YD  to pins 12

power  VCC,GND
inputs EB,SEL
inputs A0,A1,B0,B1,C0,C1,D0,D1
outputs YA,YB,YC,YD

family LVT

pcf order default SCAN is EB,SEL
pcf order default SCAN is A0,A1,B0,B1,C0,C1,D0,D1
pcf order default SCAN is YA,YB,YC,YD

unit
pcf
  "0 0 10101010 HHHH"
  "0 0 01010101 LLLL"
  "0 1 01010101 HHHH"
  "0 1 10101010 LLLL"
  "1 1 10101010 HHHH"
end pcf
end unit

